New LoadShape.Residencial npts=96 interval=0.25 mult=(0.9472474728478916 0.9485518016199154 1.0172997963264765 0.9671082735815814 0.9549930371126546 0.9364522914151564 0.9340187957044878 0.9700707865359506 0.9018381363657761 0.8763658001720536 0.8843657544444349 0.9133731201011456 0.8135134365607991 0.8662440010471689 0.8924748097069645 0.9348691880988611 0.825563149441182 0.8805914290411718 0.863225227599738 0.7795642992090523 0.8046345623805038 0.8489527957515203 0.9317050961811072 0.8828775589617386 0.8546274627086868 0.8569927594722583 0.8533094380135711 0.9256583156436162 0.8009659372023941 0.7842220958522593 0.8482620059413589 0.8653381201709832 0.8088308501443338 0.8280573933934307 0.8586715639434072 0.8220031165851263 0.859640792015561 0.9002439234333756 0.8843095670637492 0.8932705246124923 0.9501766444797956 0.9614174676738027 0.8685839210594494 0.864799469592115 0.950580587065216 0.9135031395469195 0.9378979162640604 1.0207691085051003 1.0264503826034275 1.0416990058712274 1.0633975390166952 1.1249829101980058 0.9877680725208865 0.9704018793955522 0.9949917635912924 0.9660315559368358 0.9620487930402655 0.961118597274761 0.8891733385952588 0.9034151256163182 0.8419198531374877 0.9205712083263017 1.0833847595377812 1.0282283174077653 1.0033940414084463 1.0783688605561197 1.094334334384567 1.0858916737608333 1.0592410522789748 1.0706547616403457 1.1007124298908209 1.123367015288082 1.2790822865429665 1.2059025687083045 1.3013543871441446 1.3469696042654338 1.3597553486170222 1.2656480990000751 1.2868924819748313 1.3035334020631075 1.2628969991434142 1.2585918673222645 1.270197801420946 1.2249495183359251 1.2287783847053981 1.20255556175353 1.109735183509698 1.15219089902698 1.1745827005268048 1.1797809159595651 1.1151482478020809 1.1208096270180459 1.0982006873056698 1.0916204651862198 1.0751671595975187 1.0160757912015672)
New LoadShape.Comercial npts=96 interval=0.25 mult=(0.10756502286384782 0.11021747317673095 0.10408439953045368 0.10900923163313798 0.10751707249189636 0.10788510826259215 0.10419884031938752 0.10535076471407993 0.10208666034287572 0.09674005113433388 0.10281803258038834 0.10330198661267778 0.1050059677546822 0.10500905629655496 0.10011363743925561 0.10394524360958743 0.10834344366777732 0.1013676475721713 0.09827636080673081 0.09278924592588626 0.08795105070792558 0.08537654290517542 0.09389083894239465 0.09173200116650393 0.08769970962558651 0.09333576484838366 0.1062351945173571 0.12065748131175653 0.15958684485382033 0.26625043862661874 0.5053093637448238 1.5514372789873447 1.8191632673896523 1.9189295448048531 2.083625596448193 2.176279212956767 2.2020789207998703 2.2361624870231274 2.247680172663605 2.2821622694244503 2.271776620839852 2.304711845774822 2.2767057111742655 2.272496327629098 2.2639433541801077 2.2163900527659726 2.2041238927243363 2.101540398474059 1.8862784965196582 1.7789346141601603 1.5132877702137086 1.4211802825134086 1.5173349439652 1.8428830059266663 1.8925596788223034 2.0243471357513387 2.126421898628019 2.1978164642095135 2.202490145506065 2.193926718962007 2.2157663576990827 2.220778906134352 2.1770949406845728 2.1735342649832066 2.2129392641656804 2.2229154314426216 2.1943292904209204 2.215962590260838 2.158692458630453 2.1835422047384845 2.0844550348150745 1.8530383054833584 1.6108337639251455 1.1380012241982587 0.7930267088756062 0.6262102948412809 0.37136287853328664 0.29281422113892763 0.2053664998035868 0.1753658718088009 0.16227476249791503 0.1610980556162014 0.16161058763701236 0.15870911334901022 0.17629361535033589 0.16207921615932866 0.15919686438043298 0.11601263187173846 0.10546481001267144 0.10942372682442748 0.10520555098250473 0.10968298938747227 0.1019129365922815 0.10046963339180909 0.10126478809524439 0.08295161804418265)
New LoadShape.Industrial npts=96 interval=0.25 mult=(0.44311705174040067 0.4758441622753474 0.4686251131956631 0.48210603974476446 0.4541756181734384 0.4417492352962156 0.4636530517599292 0.46771860545402766 0.4547352908124749 0.4452575517322423 0.44667666927086175 0.4907060260222462 0.499899976362188 0.4972344502687894 0.47651188962517166 0.42249601166908324 0.4283789447106339 0.4427862891026367 0.43180046126758254 0.4190059562393814 0.4843902503298194 0.5387633699042879 0.5059990588138402 0.43417856278682204 0.5019346159638046 0.5450200963599603 0.6140976052632006 0.6608807835712315 0.7633916436277955 1.2327480390939922 1.5991946376060993 1.7562617334010147 1.8114936063126945 1.8184622593300606 1.8390524239413544 1.8672053428688453 1.8555691028487196 1.8612511190530985 1.8356702986734585 1.8644368322378113 1.873460340850359 1.887148699709379 1.824804899938881 1.8223125904577584 1.7946667306939483 1.7298899665410359 1.7059686088920176 1.6305610318523462 1.5156492546350882 1.5075429499642814 1.477356951253405 1.480824957527813 1.5963905604357758 1.713573337875636 1.7968082391671965 1.848595028795417 1.844689724736458 1.8398621444369696 1.8428197914978826 1.8345784943304373 1.8373503395528696 1.822451765807392 1.8304497015718468 1.7948431830555507 1.7872868707448073 1.7766988369458243 1.7538518833167842 1.6592834385428779 1.4461619702830342 1.4212958112950176 1.3504963233793135 1.3425004029834446 1.2960861734994986 0.955604089926987 0.32141238688840956 0.07250143387214752 0.04355502175316997 0.04182608320932392 0.04335121690742788 0.030307479270461367 0.035489148604509795 0.030445389335294934 0.030784574539810483 0.030439682799879863 0.030594033263846177 0.03440383914213708 0.34850580217180865 0.6520906359752117 0.6087669239334509 0.5688728863737141 0.4985917554431966 0.5116413818224348 0.4782342854615604 0.4749756715326965 0.46329365441456427 0.465571842076578)
